151
 energy: -221.280974666040 gnorm: 0.000448150693 xtb: 6.7.1 (edcfbbe)
C           16.97941120184839       22.59060320593197       61.18347159395794
C           16.42439579935906       23.84790769075186       60.51729755468065
O           16.69315873520863       25.02009218174138       61.27319594066213
C           17.97071728501762       25.56361004108247       61.07151002891717
C           14.91747163529069       23.77282034868565       60.36207968010410
N           14.27070761160293       22.91657758276095       61.13324979908907
C           12.95890835614673       22.81248262219163       61.02681172117749
C           12.21257524902039       23.54684510894415       60.11987949241234
C           12.88196811361868       24.44357105753723       59.30444762512920
C           14.26014470288268       24.58684520520053       59.42785060418669
C           15.01370299368629       25.51911511764477       58.57589008249807
N           15.43369737242100       25.12039659353186       57.32606224986868
C           15.14009394834676       23.86341365545141       56.69227606053813
C           13.95687138759108       23.97180708228491       55.73085844911793
C           15.46327830475867       26.78865230058585       58.84890685174925
C           15.22705813015577       27.55763355143840       60.10882810237928
C           14.02228967510884       28.52699455857291       60.08632755044051
C           12.77260569741716       27.84202263564717       59.53703531053639
C           13.75178028409784       29.00506713637355       61.51506349647828
C           14.32620618879395       29.73931988119011       59.20050433143951
O           15.39020402051750       30.50078842074533       59.78050715703858
C           15.79744704621699       31.56427352215954       59.10235420846519
C           16.94953114870892       32.26818490716482       59.80435792390718
N           17.05624369666742       33.64842252724858       59.36528312008771
N           18.30017124587056       34.15872432816586       59.74439047479588
C           19.45513506735646       34.01454358829083       59.05369006602972
C           19.32620092813890       33.46179087765782       57.62058247399846
N           19.44934989937240       34.55732999312242       56.68543866091641
C           18.36888090430396       35.23653770391561       56.28131669230496
C           18.68583737429598       36.29074036131080       55.21684183062456
C           17.76265625332187       37.51163835242523       55.29023736025407
C           18.13772912129964       38.52691670866213       54.21307238508152
C           17.89279615759606       38.14478036100364       56.67502328198746
N           18.64476546418672       35.59498010471064       53.92697833362387
C           19.82154191652509       35.13072277367243       53.47059312043979
C           19.91449993654059       34.52517856173230       52.05626992882374
C           19.70905429168547       35.62902899102703       51.01395877403470
C           19.93356374970653       35.07436802672822       49.60490376417216
N           21.22941590632643       34.44890518519261       49.50817248321759
C           22.18099842994318       34.97768157772654       48.69825931901686
C           23.45068989108198       34.29331579751143       48.72103842438308
C           24.57170583905358       33.85700099476836       48.65866237016020
C           25.86261581783805       33.19077378294377       48.49318362424574
N           25.84785208907654       32.32593575733608       47.30051074202905
C           24.89015765758279       31.23877181005894       47.37847645465377
C           25.67602662642087       33.05508330273600       46.05599134908794
C           26.95649361748102       34.26102029466165       48.35313611220923
C           26.16513048673335       32.35234022683843       49.74585407172107
O           21.98263610891841       35.93884940102674       47.97679707653106
C           21.43606299928691       33.36406902702263       50.43322216747112
C           21.27866289191041       33.85844504743657       51.87199433141767
O           20.86054531194607       35.29052672994005       54.09770141589984
C           17.32144356450575       35.27075269158085       53.43959653565839
O           17.23948445393478       35.00305754690187       56.67901925038819
C           20.38264478198048       32.38338395765189       57.37698266187540
C           19.93588084894066       31.34852765314106       56.34096330480642
C           18.78402535481985       30.46611723682988       56.85300598084881
N           18.41475136316576       29.52559570258894       55.81709839206579
C           18.00882491373208       30.25128494695444       54.62447068780638
C           19.17705131159046       31.11607747221287       54.15849812082735
O           19.56863244038170       32.02785418695763       55.15773968099821
O           20.53040319702298       34.35831939751538       59.50870983602643
C           18.31778124400069       34.36739822871965       61.18073310782690
C           18.09638306182714       33.02142514366866       61.88263713203414
C           16.85043264679631       32.31871044167510       61.33332177736600
O           15.36391224554629       31.90016012910515       58.03133397061692
C           16.22106809829049       27.19784435678463       57.70812288796993
C           16.16494729082073       26.13691560218758       56.77497933491237
C           16.81433556179643       26.22065933239990       55.54909433075365
C           17.52398121860845       27.36376552544339       55.27159053074308
C           17.60712185598408       28.43221144641747       56.18559099626652
C           16.96007341543406       28.34428363923685       57.40613175845096
F           18.94993983331104       33.53724100797454       51.84501542700734
H           16.54654038521972       22.48992126742772       62.17349630146389
H           16.71671269790648       21.71697207506657       60.59429151300596
H           18.06173710685577       22.65018074364957       61.26529249189676
H           16.87082519850778       23.96374548281783       59.51427154860048
H           18.01593084355191       26.46372446531836       61.68146017518536
H           18.76564941827193       24.87843603835561       61.38596132594140
H           18.12528876030271       25.82982380337662       60.01783616775307
H           12.49400238594034       22.09741728638728       61.69274048968217
H           11.14355301062457       23.41975142580361       60.04843585433773
H           12.34251753432560       25.03072761590517       58.57508376051596
H           16.03020404747334       23.53540495918756       56.14596670153968
H           14.92255150457173       23.12480200922958       57.46963236272708
H           13.05361565786747       24.24453789494232       56.27061752412090
H           14.15271611727123       24.73164713938725       54.97818426098645
H           13.79099088928648       23.01943371629432       55.23465088737202
H           15.07673116981112       26.84167868776833       60.91882338302522
H           16.11937027524686       28.14294024796468       60.33977977078943
H           12.53767946951493       26.96858731955024       60.13925310481236
H           11.92260205495991       28.52048545058293       59.56514523511141
H           12.93010816747650       27.52970094377219       58.50755223476667
H           13.48276478352992       28.16318740992286       62.14816162424729
H           14.63522614204994       29.48259853922375       61.92951904903125
H           12.93445368774641       29.72302392889570       61.52818772033149
H           14.61628798925771       29.42644008440062       58.19245377103739
H           13.44733468995535       30.38800235287155       59.11494800697850
H           17.85562121146663       31.68359334948698       59.53730122549839
H           16.82539786388546       33.82989041891724       58.38966406731844
H           18.32903284433133       33.04508520619414       57.46215609989427
H           20.34799261701536       34.73451767418035       56.25921204797531
H           19.71823985421928       36.62930281944650       55.34963286478643
H           16.72573365551346       37.19310899065398       55.15957061355243
H           17.46731077894513       39.38183328029410       54.25435081766891
H           19.15432327710866       38.88092545264372       54.37099461516267
H           18.08223767553353       38.09616604544503       53.21659546496940
H           17.57543406635733       37.44756352411705       57.44525996973771
H           18.92368765171325       38.43333089212747       56.86979588641319
H           17.26853861020276       39.03254829622274       56.73811146459136
H           18.69879357699836       36.03176776432748       51.09005828106897
H           20.42315307191082       36.42766877952651       51.21976248255967
H           19.15940318649346       34.33221562574587       49.37664847579084
H           19.89423252309279       35.87762061762188       48.86638236139937
H           25.12962564760950       30.58483474609527       48.21305619665012
H           23.85081046420178       31.58556616564101       47.48027560366049
H           24.96722710571882       30.65125808823815       46.46467745676631
H           26.51401392450311       33.72857630746450       45.89768708888803
H           25.66890389889545       32.33601626405311       45.23802433149929
H           24.74075682933772       33.63133452335850       46.02098165183582
H           27.11653321447288       34.74809800096885       49.31183730675012
H           27.88301326851015       33.78945029441910       48.03618386619916
H           26.67461851360569       35.02601622442496       47.63531845310689
H           26.37928956824599       33.01078125479980       50.58404766575896
H           25.32288119112414       31.72446047664163       50.02399302821325
H           27.03284826706111       31.72594212073286       49.55678868894450
H           20.69087187774984       32.58343925657334       50.23379719038382
H           22.43353910492454       32.94744561400130       50.28464945756387
H           22.05273972262854       34.58565211985621       52.11362404260719
H           21.35970063884277       33.02567532990705       52.57142035890159
H           16.70208224480419       34.97756089619849       54.28866628609678
H           16.86347352869457       36.13660640739724       52.95590934637931
H           17.34154784812430       34.44561271156137       52.73959558608556
H           21.30076842371416       32.86306291068080       57.03609756350131
H           20.60608056935047       31.86954328621722       58.31345107146153
H           20.78498246083272       30.67784620714936       56.11647754932317
H           19.12905378422710       29.91233874976936       57.72924169621876
H           17.92599076936706       31.09957004302913       57.13062887512319
H           17.72841826939427       29.55191078567864       53.83828394270434
H           17.14646638540992       30.90405329849278       54.84234144071590
H           20.02698555835757       30.46604065368114       53.89658085437859
H           18.89053415625842       31.71184068675712       53.29311535576963
H           19.28148169787431       34.79832780927993       61.45111449940217
H           17.51209905736133       35.06258220140838       61.42436647911049
H           18.97281884527498       32.39095027830837       61.71351561933549
H           17.99460296248288       33.18099847269525       62.95610169283880
H           15.95783759239163       32.88528146147510       61.60064989669497
H           16.76669104157646       31.31308737576527       61.74461355965525
H           16.77982402900292       25.41114468912993       54.83526324488029
H           18.05799039414052       27.44127992509123       54.33709288914704
H           17.02170542042227       29.14056648890653       58.13021243032900
