151
 energy: -221.283013779471 gnorm: 0.000802778839 xtb: 6.7.1 (edcfbbe)
C            7.24897997039009       28.92467398556645       59.87850851050538
C            8.27429917247403       27.94548273498389       59.30676034497625
O            7.67691941374446       26.96118777027466       58.47138195448307
C            7.23898722003283       27.43702187452679       57.22540062494340
C            8.96431627709699       27.18767163526688       60.42530747830759
N            8.18329368791137       26.79953414890815       61.41977079518351
C            8.69688824723259       26.12431543803864       62.42918676699284
C           10.04146870056667       25.79727049454667       62.51294650087356
C           10.86913781900305       26.20282263073420       61.48232825301638
C           10.34004608449633       26.91215539809817       60.40438928966225
C           11.24112426993457       27.35581736713271       59.33556853056223
N           11.14379689030286       26.86659838099956       58.05339895206539
C           10.39236237900965       25.70194460669252       57.66010274479831
C           11.20047700304248       24.42401734481406       57.88178466643912
C           12.27738818997079       28.26006383591064       59.42673752898868
C           12.71091234437795       28.98436360976007       60.66239247863815
C           12.12309591654256       30.40086496632930       60.86646616039405
C           12.39283469217269       30.83971983837116       62.30830390608637
C           10.61864661482399       30.41068317333782       60.60570036282189
C           12.78170392401401       31.39853842320926       59.90939657136670
O           14.17239051061676       31.50847258258046       60.22666248906790
C           14.93201719545478       32.17415150904964       59.37085131804660
C           16.39992063887963       32.14243696078163       59.76882000475577
N           17.08170227068023       33.34624884505256       59.32299995506462
N           18.46144856968274       33.12795270834540       59.35702130283983
C           19.18647715126688       32.53108388833959       58.38307494306465
C           18.48801230243306       32.36137963641134       57.01874794767858
N           18.93423803137052       33.42026675399649       56.14087676246307
C           18.26366010846236       34.58143480092864       56.05580625669796
C           18.82731342994037       35.50835961427632       54.97498943024207
C           18.24970241691772       36.92840800051533       55.03739384257790
C           18.69666715735060       37.73493995099287       53.82121436227924
C           18.71686147445146       37.60019525558353       56.32689268941777
N           18.57246539251338       34.83617756250126       53.70255482845727
C           19.63467192043936       34.36310019430697       53.02998003564147
C           19.44269598754325       33.53526822226198       51.75190683841362
F           18.22384999481621       33.77824813954902       51.12683637492665
C           19.52053566799000       32.05492304109128       52.14738807939499
C           19.44988899386991       31.17404215243574       50.90100861737375
N           20.49074136754944       31.54357379340956       49.97197748026120
C           21.46310645502935       30.65643128121661       49.65061035169637
C           22.45803671499473       31.14587195449741       48.72612296600773
C           23.35509759283156       31.36448416932578       47.95416475014954
C           24.42146005730725       31.74810943610995       47.03255497054698
N           24.63004912736298       30.63582038622052       46.10017676785574
C           24.87786682814441       29.36040343278236       46.74128983180171
C           25.59909884952251       30.87379798463200       45.05426442207278
C           23.92901379051826       32.99049673280410       46.27042165646956
C           25.65726125841019       32.11688089904585       47.88114628169791
O           21.49500519322009       29.51568917191364       50.07673702130677
C           20.44691190828957       32.91601079877420       49.53765296785995
C           20.54069909544447       33.86427223483305       50.73610858926852
O           20.78113013070888       34.51231247686291       53.43266426589901
C           17.18310325219805       34.56557370642800       53.39420190310526
O           17.26419421226025       34.82014458490037       56.70862833253848
C           18.78372045733231       30.97430292375645       56.44011049918339
C           17.62665887184939       30.37257186513424       55.63750320708927
C           16.36848507616297       30.11657088226016       56.48430863543770
N           15.36834081562595       29.49870422040550       55.63955805555147
C           15.04777005422783       30.38906947732865       54.53729768758765
C           16.32028448899909       30.64380759476906       53.73473914177572
O           17.32747185989457       31.21795006082598       54.54030012658534
O           20.35169444248808       32.21605192735254       58.53952994130718
C           18.91016930293305       33.09555898509150       60.73747624641342
C           18.20538793549300       31.94526557829057       61.46723204635767
C           16.68790593220030       32.02256038515073       61.26816229774707
O           14.53784049673684       32.68106114602181       58.35226346819894
C           12.86777182223384       28.32608860540703       58.12791860687961
C           12.13821138578722       27.43574417872251       57.30553956183596
C           12.47057314871959       27.25653756236524       55.96741752777380
C           13.52788226165736       27.97251216008899       55.46278717571400
C           14.27460948861828       28.86257571122198       56.25919526167984
C           13.94973207470655       29.03143258107976       57.59330018110475
H            7.73787707103606       29.60493619141911       60.56925740777059
H            6.78845699488112       29.50708034593208       59.08479180474318
H            6.48666546477166       28.36445121717784       60.41111701459278
H            9.02943835084549       28.49502854434473       58.71963445621510
H            6.37157262696144       28.09819972627317       57.31697246021898
H            8.04165045067691       27.97335945590472       56.70251691355833
H            6.95485187221487       26.55841947914680       56.64844742927389
H            7.99684556538749       25.83893657013678       63.20332247586633
H           10.42744188121772       25.24246110329208       63.35392225886992
H           11.92404907577918       25.96565509049424       61.49421669581487
H            9.46628648644707       25.66360455402384       58.23670517995070
H           10.13447208660804       25.80183057586455       56.60260785558435
H           11.42869855427401       24.30226534112274       58.93846305075556
H           10.63131099427886       23.56080091746260       57.54806986738488
H           12.13597210582394       24.46545005392745       57.32781012159663
H           12.42406766344793       28.38682067623882       61.53006022912508
H           13.79972060732242       29.07124365089967       60.65806718781811
H           11.87457367300834       30.18456975688961       63.00453070128493
H           13.45741767513928       30.80708731939393       62.52316048671791
H           12.04182519678575       31.85672835064373       62.46762415963918
H           10.19743230666177       31.38460862408130       60.84460201122618
H           10.41023258659968       30.19259374783606       59.56180064986950
H           10.13036326394137       29.65972969565826       61.22142656188951
H           12.32502182698559       32.38926594330771       60.00838348530362
H           12.67464522031131       31.07598865216368       58.86891122251674
H           16.80870925509165       31.23969533162330       59.26576435001878
H           16.75850185736703       33.74288786359769       58.44177738261199
H           17.40983247083856       32.50130075276137       57.11447555769204
H           19.81035841737805       33.29976593675811       55.65592802386049
H           19.91681493261148       35.56519839687284       55.07794904661610
H           17.15753349761345       36.87144651628608       55.05739353157968
H           19.78305112008183       37.76362072236759       53.76799138677589
H           18.32073559544456       37.29923482719325       52.89897326611552
H           18.32719613195091       38.75488871853976       53.89302242261203
H           18.37420396148774       37.03947586495857       57.19190495672440
H           19.80299966783770       37.66057918908662       56.35441390384302
H           18.31381025761763       38.60790127306274       56.38982717718778
H           20.47401852565630       31.90115490831112       52.65528606011537
H           18.71441379267487       31.80410226540375       52.83747576515569
H           18.47402698844526       31.29688496839901       50.41619836319624
H           19.59447403793943       30.12418268468688       51.16301700815483
H           24.15940564442276       29.20384103011595       47.54268821345772
H           24.74362945281010       28.57373250722697       45.99823225476251
H           25.89563997567969       29.27205018548327       47.15157385057479
H           26.63598062301418       30.93191634850676       45.42106812493174
H           25.54045376487069       30.04309095468279       44.35052888932776
H           25.36234667461202       31.78678685702803       44.51469583961000
H           23.50587879105851       33.70582327393125       46.97241534100817
H           24.74572391196385       33.47702245362539       45.74390242117023
H           23.16103249311359       32.70216988961825       45.55725937944843
H           25.97865892896005       31.26675300278845       48.47773614367717
H           26.47482460357740       32.43110346558964       47.23645040095888
H           25.41042360169974       32.93443336780984       48.55390807322907
H           21.26908166646122       33.09974785914261       48.84409992032988
H           19.49741232199675       33.09204304268783       49.01601239440035
H           20.42212066853475       34.89549561910205       50.39946251241713
H           21.50492114524358       33.76958960359396       51.23451115542076
H           17.02787533438067       33.50408510751598       53.20951333558584
H           16.57751859024765       34.84837719648066       54.25107352413315
H           16.84927021848740       35.13416420665514       52.52543963309491
H           19.66167853284421       31.03957155586189       55.79573063445918
H           19.02845913355720       30.28879554796503       57.25317438896445
H           17.95480361507058       29.39508310527109       55.24151774291703
H           15.99779823539205       31.06648607817697       56.90091256062595
H           16.62189698680493       29.43020975796217       57.29509044322361
H           14.29095816273900       29.93596417688816       53.89851278045541
H           14.66388642085271       31.35244903170496       54.91477557962896
H           16.12776278749651       31.34835171555437       52.92284136702978
H           16.68308967124799       29.69325518745905       53.31485832538339
H           19.99142483583322       32.95988830933874       60.74163363801780
H           18.64851746132415       34.05334325708839       61.19128576575539
H           18.44803401413190       31.98296162233970       62.52914524122483
H           18.57600730902000       30.99843061749321       61.06673701053133
H           16.29213198287956       32.90763363681246       61.76694151120817
H           16.20392040372711       31.13869812098174       61.68282972028548
H           11.92575420253756       26.56899234394299       55.33812997143146
H           13.81921883247792       27.83450338626596       54.43290453930965
H           14.52021311001806       29.69415241037360       58.22394775547337
