151
 energy: -221.280357923334 gnorm: 0.000349693804 xtb: 6.7.1 (edcfbbe)
C           16.92646662340508       22.91318335495498       62.26946522120294
C           16.36165313708632       24.13848183484344       61.55334495572513
O           16.60880008419970       25.34134473197172       62.26746603296313
C           17.88902056075235       25.88166040621227       62.07435830629135
C           14.85666639652372       24.03847959785697       61.39435013133553
N           14.20923354089258       23.26942427243760       62.25225477498680
C           12.89860065001655       23.14857167555086       62.15244794998971
C           12.15329207156478       23.77707481339988       61.16810565360491
C           12.82295643831681       24.58180192653495       60.26238504781169
C           14.20072889053521       24.74158372047614       60.37326370729392
C           14.95092207482384       25.58144030856403       59.42782837063785
N           15.33865791670385       25.07224363522755       58.20805814500712
C           15.02724377959707       23.76534756373474       57.69523829689719
C           13.83687045277593       23.79574059009231       56.73704514490154
C           15.42075405191926       26.86370824260861       59.58197105733598
C           15.21218735665801       27.74165489342903       60.77354296269028
C           14.01745244989788       28.71898962297324       60.68145200617283
C           13.76657220145366       29.31824837335241       62.06735494981108
C           12.75520997381816       28.00466352817662       60.20236133130143
C           14.32658431278845       29.84875372586986       59.69475244809381
O           15.42300148621686       30.62773992600567       60.18529587162810
C           15.77411666594978       31.67656456728247       59.45306260478963
C           16.96448290590036       32.40568211784085       60.05914647045754
N           17.09262157217321       33.73598139967229       59.49184828922507
N           18.35163320195328       34.25644576418361       59.79996913304326
C           19.48816060548763       34.04858956778907       59.09604999644586
C           19.32158705878947       33.34069752788188       57.73746556650729
N           19.40531908001643       34.31240894659144       56.67031762554321
C           18.29575665631295       34.88663068912205       56.18934791255849
C           18.53477042968655       35.81477268557771       54.99793734745194
C           17.63653395956817       37.05854290718745       55.06067646469256
C           17.86252411057976       37.94561481649549       53.83921631688969
C           17.95509763179001       37.83073574282430       56.33997232427241
N           18.34407696564783       35.03088496801685       53.77742095750548
C           19.45418830278409       34.69524967223951       53.09546932092773
C           19.31375640468808       34.01383519246333       51.71732181447809
C           20.68414618003415       33.59247468962167       51.17626612780999
C           21.51274393407266       34.79330894299417       50.70954904747827
N           20.75568815525035       35.60848749781051       49.79563234367006
C           21.01692155301446       35.75415500452113       48.47257099878937
C           22.25647617945220       35.17041217438454       48.01796369741912
C           23.24857466210955       34.77047143458338       47.46605132410724
C           24.41734964313952       34.20628490557534       46.79606445502003
N           25.63063017226140       34.70428536535135       47.45277548048108
C           25.65392570820881       34.53683776281310       48.88932236475143
C           26.87410684014291       34.25296375198825       46.86881433098502
C           24.36433215989830       34.71291926388296       45.34428913682596
C           24.26263871874444       32.66988079769774       46.81788331466503
O           20.27962442498365       36.35286598288250       47.71003575795179
C           19.51279940382669       36.09864547729760       50.33724910894721
C           18.60719799657281       34.92401635011019       50.70831292952916
O           20.57019498180674       34.99279141730069       53.49814366248903
C           16.99017435523363       34.58430338128536       53.52793075168519
O           17.18378243460227       34.66466820536444       56.64150221756827
C           20.36875960664584       32.23676919813919       57.58923804761032
C           19.90532781715298       31.12472087010524       56.64405612075142
C           18.74347995414925       30.30582339544310       57.23282740493650
N           18.35021215816510       29.29065432046188       56.28040837791010
C           17.95220344167447       29.92033909873445       55.03140537580173
C           19.13166726307782       30.72548488393350       54.49099039537706
O           19.54102829664776       31.71008919746509       55.41145443091614
O           20.57387259123229       34.44052601569028       59.48274165432435
C           18.40264336972329       34.59421386105964       61.21082166593407
C           18.17223639271644       33.32117335048326       62.03546810808788
C           16.90022281300293       32.59898158213491       61.57904597872329
O           15.26285053912156       31.98070604011756       58.40789764431084
C           16.15828618071818       27.16400573900888       58.39525415929972
C           16.07127296289066       26.02782485703831       57.55814687170256
C           16.69736874466682       25.99914941207532       56.31754571178369
C           17.41546043400637       27.10464966888805       55.93019692387286
C           17.53040272618729       28.24561268942042       56.74807391871980
C           16.90389517728068       28.27075784460237       57.98253909923616
F           18.56592348986783       32.83582201768454       51.83977033396094
H           16.48781076597625       22.84505839087561       63.25973773802794
H           16.67770459442429       22.01530903336930       61.71119449525882
H           18.00754587425055       22.98743208478013       62.35530142543411
H           16.81356046112234       24.22387837975556       60.54990826266764
H           17.90919900123000       26.81715710560788       62.63025382398372
H           18.67743355511810       25.22297132856504       62.45468893927081
H           18.07583986447958       26.08485475761173       61.01191656996951
H           12.43314050115380       22.50864997097775       62.89053801241968
H           11.08481723950784       23.63994618999505       61.10796625331628
H           12.28420005612347       25.08745427437253       59.47373368562651
H           15.90917240321682       23.37867074212368       57.17449082620661
H           14.80966315907808       23.10452110845683       58.53964913744804
H           12.94130099419307       24.12981706858193       57.25455162088853
H           14.03446029804445       24.47735633371308       55.91336079377318
H           13.65597452968050       22.80216045662976       56.33593006834250
H           15.06442380317656       27.10144856954560       61.64497291314269
H           16.11337434453350       28.33484710076117       60.94079898701145
H           14.65954766315350       29.81847628225136       62.43185586421775
H           12.95699077089411       30.04409021253142       62.02780080761884
H           13.49520492755092       28.53563576243315       62.77147070049496
H           12.51709268977158       27.18658781714892       60.87685078818904
H           11.91269489865447       28.69264614496394       60.18150331175985
H           12.89882752615679       27.60581087799621       59.20112349742385
H           14.58513359615961       29.44808078045606       58.70935988825949
H           13.46121643365329       30.50998337825500       59.57559844740922
H           17.84845057536116       31.77358006053392       59.83053483965001
H           16.84149964825912       33.82843007996774       58.50821565124892
H           18.32159680556119       32.90918136178335       57.66019730516643
H           20.29945670008370       34.47068928309636       56.23249321637014
H           19.58107970409440       36.13567341198058       54.99393877331190
H           16.59137521808095       36.74120252264508       55.10356437081497
H           17.23909575800591       38.83400919112724       53.90189076293498
H           18.90306894237013       38.26061007506742       53.79170262610539
H           17.62204286578073       37.42621622027047       52.91489205600489
H           17.76310784864442       37.21718990871930       57.21623950203003
H           18.99897665936501       38.13794617328757       56.35263362992377
H           17.33363416663864       38.72046913824093       56.40323942224246
H           21.22704878345164       33.05893066534652       51.95680396432902
H           20.51036383507870       32.91278208158707       50.33873479006749
H           21.78784890436273       35.39371578093125       51.58259145028396
H           22.42034293614874       34.44386775346867       50.21449066147373
H           26.48674571044538       35.11717998205187       49.28669342382243
H           24.73165628984728       34.92304543698662       49.31803503424388
H           25.78617296079409       33.49052303187013       49.20767832985133
H           27.68205116299637       34.84299522547173       47.30265098067795
H           27.08880776630964       33.19067466984537       47.06414859446763
H           26.87357013746899       34.42287947152887       45.79604177820178
H           24.66140882733502       35.75768582476748       45.31317482938501
H           25.01732923861268       34.13149385876219       44.69860703893775
H           23.34793227169337       34.62887287823040       44.96711666233884
H           24.26381640268139       32.29664554757248       47.83965586540714
H           23.32112396676581       32.39155214358873       46.35131086190177
H           25.07543920289709       32.20261467719389       46.26704168439342
H           19.72542657246556       36.70646425520287       51.22392445959451
H           19.03758428790963       36.71952599638330       49.57477927719389
H           18.39361537491783       34.33428096640758       49.81337479487293
H           17.66259709981970       35.28967317066679       51.10694923794680
H           16.97040022245884       33.69280282907965       52.91236767370577
H           16.52393848548473       34.34527727284123       54.48427383172601
H           16.39965119964619       35.36846407765165       53.04685787806299
H           21.29314777843339       32.67480077391901       57.21115481709556
H           20.58447653590155       31.80236022387264       58.56683996165238
H           20.74358600583948       30.42541966651016       56.47337824762059
H           19.08617587552956       29.82010299998788       58.14939635301089
H           17.89712257316200       30.97343804685090       57.46407614203819
H           17.65872310260598       29.16221793361933       54.30713241241671
H           17.10030354365178       30.60217444794063       55.19507213957352
H           19.97051173087386       30.04399337258936       54.28106161702235
H           18.85348648959958       31.25357897509015       53.57984368234009
H           19.37917140750735       35.02930184290416       61.42235892092183
H           17.61449036595735       35.32375988160256       61.40706412395211
H           19.03202658663692       32.65935694595417       61.90482158975844
H           18.09902524118674       33.57847051028939       63.09214451353412
H           16.02589236945587       33.20811933924362       61.81092318022750
H           16.80487976758720       31.63716824523055       62.08240119735714
H           16.63957722119963       25.13249533688760       55.67598484677144
H           17.93165887789938       27.09441798609685       54.98265455209068
H           16.98654758085138       29.12425953768875       58.63581580123503
