151
 energy: -221.279616838978 gnorm: 0.000422712337 xtb: 6.7.1 (edcfbbe)
C           16.66202932052082       22.89353100557912       61.06871512744411
C           16.11749008513057       24.18003835461800       60.45127867705517
O           16.42192890044180       25.32451205367996       61.23547657202675
C           17.70797043164185       25.84653090736688       61.03073478001281
C           14.60652850074222       24.13682043142389       60.32570355469339
N           13.95836343329187       23.28601747900731       61.10168399360100
C           12.64270186530091       23.21076771316627       61.02247732374386
C           11.89269207315813       23.97174466281502       60.14077122334675
C           12.56322196590600       24.86329236009506       59.32070819794084
C           13.94667174084016       24.97443062630203       59.41435114540426
C           14.70188933043323       25.89874198518217       58.55559812836765
N           15.07677860107877       25.50927720317186       57.28839865983145
C           14.73235168650451       24.27130873142157       56.64288945353622
C           13.53093602179874       24.42846342677221       55.71125972914756
C           15.19513724154653       27.15009381377049       58.83657831151599
C           15.00852305943046       27.90992234015918       60.10999006231580
C           13.83757217654494       28.92024507372335       60.11838687064537
C           13.60635861812038       29.38996413657394       61.55672818558640
C           12.55707380819246       28.28388688344547       59.58134970032119
C           14.16805681583471       30.13280839950550       59.24224169499926
O           15.27892534215959       30.84028408927098       59.80285336113799
C           15.66427140106908       31.93973803339890       59.16873364138782
C           16.86615401142041       32.57910923704347       59.84835668075525
N           17.02597314895491       33.96055472132059       59.43184227010462
N           18.29921794586882       34.40797262071352       59.79093925358797
C           19.43059996680785       34.23467456231721       59.06933676357144
C           19.24815613774626       33.71739032181249       57.62865985157867
N           19.40239216817096       34.82502613553296       56.71200903518400
C           18.35105439173203       35.57728525178655       56.36479609202504
C           18.68706583687821       36.63105138184476       55.30633604764117
C           17.87684665688252       37.92128229724575       55.47079667536276
C           18.15003083574185       38.49922745210850       56.85885508509858
C           18.26478463686925       38.93312894665101       54.39515319329465
N           18.50084946912133       35.97596679056529       54.00817767792667
C           19.60204662349769       35.43364724925357       53.45829822896394
C           19.54082514165651       34.85108286132189       52.03282672469886
C           19.34749529129641       35.98575077904287       51.02208303316991
C           19.40683136132179       35.43679703025002       49.59439268207615
N           20.62815527516823       34.69898036694753       49.38309232772052
C           21.54257159473550       35.14082584921680       48.48277302512218
C           22.73004679258864       34.32577969997808       48.37872535837099
C           23.76932622327327       33.75275170033326       48.17927823526797
C           24.96069712719981       32.93905509241892       47.94660635229921
N           26.08774257804120       33.56084943944535       48.64726472003633
C           25.85535057379886       33.80657059401086       50.05439740946541
C           27.36976401360660       32.92419002079087       48.44627372734447
C           24.64043671329421       31.49801459607645       48.40173989010456
C           25.20470025715371       32.96018362757537       46.42842650688294
O           21.37329182012162       36.12811147433875       47.79184059570099
C           20.81736663167663       33.59001813263719       50.28316533476168
C           20.82860740990943       34.08259264028954       51.73148129752931
O           20.69320077807448       35.49771295424387       54.00869339328791
C           17.12482235335514       35.77644969804113       53.60671084873013
O           17.22603271863056       35.40516041737845       56.80444011378308
C           20.25327757401049       32.60165653882592       57.34067903466611
C           19.74052369401752       31.61120279276086       56.29189903473966
C           18.58097203354498       30.75061729816513       56.82217271652213
N           18.14511067669361       29.85200143236544       55.77550832743941
C           17.71724074304721       30.62226861237292       54.61935004888158
C           18.89238228217850       31.46649710408303       54.13372504125977
O           19.35054521230340       32.33522494937267       55.14285599480140
O           20.52913375759960       34.52615800705840       59.50527305218588
C           18.35854305325582       34.58975081180754       61.22982345921056
C           18.09104274983974       33.24280245456778       61.91365328885827
C           16.80282299858521       32.60736923533609       61.38051255935294
O           15.17370219706525       32.34817114791197       58.14912979635343
C           15.93434938652695       27.55583444612271       57.68297124689044
C           15.82229731746127       26.51354194779854       56.73409611388954
C           16.43949696346811       26.60114991084477       55.49183509139111
C           17.17412769071598       27.72857053455848       55.21460306984788
C           17.31508033869856       28.77562583820215       56.14580463627316
C           16.69968902972739       28.68472373715638       57.38197035817234
F           18.48763776566921       33.94491187818097       51.88553694158718
H           16.24688267861134       22.77111485314884       62.06385048018453
H           16.37169021815379       22.04284273889223       60.45917654013704
H           17.74668548128206       22.93097295532288       61.13016924710156
H           16.54606759428702       24.31777351826288       59.44325901124340
H           17.77810917191641       26.73221806156902       61.65923375637851
H           18.49232508520761       25.13906838446027       61.32138781720521
H           17.85617026656739       26.13208097000501       59.98119525932717
H           12.17701167909382       22.49809543836217       61.69040556056154
H           10.81983416173606       23.86862248671457       60.09205156041507
H           12.02085993495619       25.47149522857819       58.61094358790157
H           15.59970257815173       23.92666325433376       56.07077641040458
H           14.51165195057623       23.52715844313028       57.41397697615136
H           12.64858059742134       24.71867658321245       56.27584929889299
H           13.73133706809826       25.19389610960199       54.96550552126425
H           13.32612715445489       23.48902163127085       55.20501741947862
H           14.84686552893486       27.18986348011477       60.91406514896754
H           15.92408388542752       28.46159857999893       60.33207226951230
H           14.51252055993760       29.83143185194895       61.96217258295942
H           12.81477399809610       30.13558778676890       61.59153294656060
H           13.31835202987838       28.55038740979541       62.18446611981903
H           12.30331905887709       27.41067695238458       60.17630948842486
H           11.73050077926534       28.98943104431156       59.63198203359041
H           12.68721168303225       27.97966062696903       58.54559746880209
H           14.41779181369956       29.82329908244467       58.22238151038515
H           13.31508591547593       30.81840567677896       59.18942686365030
H           17.73795557276520       31.95807655674389       59.55196366579893
H           16.77858908061286       34.17587755495543       58.46759661894028
H           18.23066860596634       33.34629793456194       57.48431951880463
H           20.28871860384478       34.94731712541466       56.24349176947104
H           19.75087121462306       36.87893873789677       55.37487940340332
H           16.81048938183446       37.69330948914809       55.40256546859685
H           17.82557742939329       37.80771849036000       57.63146781894413
H           19.21223468869146       38.69486583961373       56.99089568254912
H           17.60902469596857       39.43361375744470       56.98599692640998
H           17.67283438620446       39.83886892814935       54.50166497027029
H           19.31579394115868       39.19725672302850       54.49205560183088
H           18.10796186441011       38.53712674144959       53.39503498580494
H           18.38598109577360       36.47309213795396       51.18465902543897
H           20.14300431186195       36.71609098081563       51.17628769664399
H           18.55237439183102       34.77094573000875       49.42430033243301
H           19.38008961726621       36.25243374796981       48.86911203304856
H           25.89258505584658       32.89371899522438       50.66973022385511
H           26.62713727790348       34.48720412264967       50.41437233894600
H           24.88651775783855       34.28313185189827       50.18810589744345
H           28.13537952849004       33.57128017850219       48.87484996381221
H           27.45051607813379       31.93858808268195       48.93125862923306
H           27.57810170881917       32.81563527383829       47.38565081246036
H           24.42117529378391       31.46988527473803       49.46685388206350
H           23.77239640812168       31.12816059434102       47.86154214580945
H           25.48310388320225       30.84243574624564       48.19550600778607
H           25.90186118348232       32.18113319766377       46.13106974183094
H           24.26470706348937       32.79420357110477       45.90715885640234
H           25.59755010124943       33.93018839162223       46.13635964410158
H           19.99170309783685       32.87977000119299       50.14853095667798
H           21.75642350250276       33.08819231751605       50.04552012129791
H           21.67470851322685       34.74624745780587       51.90507240079869
H           20.90650906579712       33.24066031261750       52.42006992073635
H           16.53923348589115       35.52701617533124       54.49286578587498
H           16.71488608980517       36.68603734544452       53.16148230940313
H           17.02479874620649       34.96207480259437       52.90096754622819
H           21.18422576551400       33.05028114315613       56.99228202269116
H           20.47315297566622       32.05734257913301       58.26067886404495
H           20.55965122771303       30.92231900830708       56.01756810770512
H           18.93888157338166       30.16157590012915       57.66973237564190
H           17.75537371500051       31.40375473196134       57.14947329671361
H           17.38804800939244       29.95306366686877       53.82572280418181
H           16.88264548231763       31.29280563120747       54.88626263173444
H           19.71107091842102       30.80035056597697       53.81818864927619
H           18.58870428506453       32.09696459685174       53.29942184175290
H           19.34688059678763       34.97133024479425       61.48513800925994
H           17.59132664195830       35.31645915136043       61.50396203087654
H           18.93379888473026       32.57622460412739       61.71460390030554
H           18.01952463110318       33.38772779471478       62.99164604675069
H           15.94332295278821       33.20982794625159       61.67649114869236
H           16.68153118882251       31.59943800768856       61.77655786113918
H           16.36143474934901       25.80632189422564       54.76508078107697
H           17.68321939096843       27.80969055777231       54.26655808573213
H           16.80621904584588       29.46411732749229       58.11898332152416
