151
 energy: -221.280601743185 gnorm: 0.000351613609 xtb: 6.7.1 (edcfbbe)
C           17.40298279261463       22.78733441647127       61.83889769646917
C           16.79401087481833       24.03156810685347       61.19503878947582
O           16.97963461413611       25.19570635353536       61.98764887451223
C           18.24219485508920       25.79383367908232       61.85856016350986
C           15.29661435018994       23.87767255900375       61.01044386699969
N           14.67288787889822       23.04122122417387       61.82169902615366
C           13.36969576716533       22.87109252113655       61.70003883752824
C           12.60890836982576       23.51566155980445       60.73811490880767
C           13.25381677021345       24.39049672242785       59.88091651845397
C           14.62257900674561       24.60206313631672       60.01660806374052
C           15.34310906818653       25.51787979999988       59.11986608720350
N           15.74950251482643       25.08837438535688       57.87573089217624
C           15.49725089393645       23.79607636801559       57.29747708581488
C           14.31755471447943       23.82438000425657       56.32610242408887
C           15.75875807341683       26.80952981377566       59.33892435740976
C           15.51471159755073       27.61894073919844       60.57163737739301
C           14.27708789129577       28.54530180338952       60.52809443112869
C           13.04721504261590       27.79839555854787       60.01563062187496
C           14.00384498992705       29.06296497180967       61.94237796958206
C           14.53000484765130       29.73596774321748       59.59786100477859
O           15.57812240129318       30.54957123905832       60.13512819607773
C           15.94340514553822       31.59999552624087       59.41452454853049
C           17.08555054975918       32.36148406338769       60.07160050651123
N           17.13944207743969       33.72929809141348       59.58719119798154
N           18.37186374310541       34.29283401995168       59.92403173901928
C           19.51646646816828       34.17052162815121       59.21293662531428
C           19.38393578837029       33.55407409353478       57.80587828795218
N           19.47803156109993       34.60866715307158       56.82077843743904
C           18.38695527962495       35.28467960683357       56.44120987457587
C           18.65377731497389       36.29529298567150       55.32335819708093
C           17.79767542664369       37.56003925528506       55.45503050434910
C           18.09854728375480       38.52786584036871       54.31329392976277
C           18.10251660938659       38.22063092311831       56.79884325522033
N           18.45319534764941       35.57708551156053       54.06240931667591
C           19.56187091788650       35.10302984449579       53.46632774558525
C           19.45763215270222       34.45132410898108       52.07235643821940
C           19.06393153670568       35.50394696499266       51.03170099147718
C           19.07784348892968       34.89191655552850       49.62881263031050
N           20.35610527559128       34.28465843514371       49.35144463428178
C           21.14223487233964       34.77531800127215       48.36033295461907
C           22.40059989343790       34.09115303123506       48.18746210780515
C           23.45009624959781       33.58552160868953       47.88166196974303
C           24.78226571156952       33.02350781172716       47.66319246123404
N           25.80522759007194       33.81854189534875       48.36347214885956
C           25.63175843208094       33.85422675568141       49.80377918674413
C           25.95098600611078       35.16718825410913       47.84433612407500
C           25.06686134485849       33.00530875301006       46.15329662025502
C           24.80741990543753       31.57360861422868       48.17561385992252
O           20.81361569373031       35.70777673876663       47.64894512677035
C           20.73640843189432       33.24972374298221       50.27856484741590
C           20.79633844758522       33.81113109948190       51.70058743416529
O           20.67419039217933       35.27298388940658       53.94559589651718
C           17.07714011246657       35.27442257963401       53.73224818448283
O           17.27630080517604       35.07722074413338       56.90215640444418
C           20.46078426851557       32.48861073587727       57.59949380769680
C           20.03180109192681       31.41312407471890       56.59760815846651
C           18.91956811585013       30.50996912797757       57.15725087508021
N           18.55938986389883       29.52962335296030       56.15603421859344
C           18.10618413778063       30.20721487012939       54.95220340220544
C           19.23298266666886       31.10038260187800       54.43878329917295
O           19.61704631042369       32.04872796916737       55.40621690974378
O           20.58597766753848       34.57511542098690       59.63029430647196
C           18.40919544982279       34.54938725327781       61.35218704910265
C           18.24713640875976       33.21975975523699       62.10017441441068
C           17.01442529119502       32.45934347488940       61.59978670062768
O           15.48417934576907       31.88629811423995       58.33957743983610
C           16.48028144867685       27.20056928686450       58.16909988700088
C           16.43968435243383       26.10574952957110       57.27527637931684
C           17.06169202887235       26.16718467424499       56.03380341849198
C           17.72686947434755       27.32246231869400       55.70119845844560
C           17.79402812541592       28.42434076329994       56.57582616131000
C           17.17511345787574       28.35845073850094       57.81221696032345
F           18.50308483068842       33.43073719894787       52.05650156371083
H           16.95565755804971       22.63624797218220       62.81602731325145
H           17.19998166457627       21.91806096877714       61.22001247619051
H           18.47876377082911       22.90106076499492       61.94524243402599
H           17.25284226973526       24.20088348383834       60.20542428558596
H           19.04654706001185       25.14367713497950       62.21955844929031
H           18.44518988923202       26.06607988504776       60.81471078757596
H           18.21349417369603       26.69491745377124       62.46833377861362
H           12.92399602098233       22.17695843960232       62.40035673786452
H           11.54775707797368       23.33790042101576       60.65814356154476
H           12.70274596331039       24.91149592096390       59.11098884462290
H           16.40000086939146       23.47021468415560       56.77056331397318
H           15.29731912604704       23.08751370173596       58.10671124462142
H           13.40302465877699       24.09614023622181       56.84690945050689
H           14.49592560860283       24.55261876674354       55.53877271723996
H           14.18262480756367       22.84485414790380       55.87538817778785
H           15.39749959602583       26.93149242870678       61.41119186623044
H           16.38947795338736       28.24249510760020       60.76721194755002
H           12.85327729107540       26.93379733539479       60.64466341503874
H           12.17253705208178       28.44498410853458       60.03684818341706
H           13.20272765796795       27.46293546645264       58.99313954496870
H           14.87373554844772       29.58593039393799       62.32986942731277
H           13.16124324253881       29.75121825304467       61.94020923182841
H           13.77204079024161       28.23445148281618       62.60702335194901
H           14.81517477470170       29.39842386103130       58.59636532421516
H           13.62988164356972       30.35364393223522       59.50451767034897
H           18.00451681697538       31.79709513989947       59.80520927801200
H           16.88354535817827       33.87516351408390       58.61234620309638
H           18.39420762096057       33.10982773153180       57.67690110547574
H           20.35933866549172       34.75536366539970       56.35177758185719
H           19.70881242923391       36.58514061134495       55.34554739066704
H           16.74016620489880       37.28493388295196       55.44324070425003
H           17.48627645410535       39.42131923068538       54.40829465881048
H           19.14495405238942       38.82474034694317       54.34037656353087
H           17.90050193457442       38.07885734740265       53.34329336100723
H           17.84849535885133       37.55456028304084       57.61891023305101
H           19.15832648881151       38.47378573060836       56.87116539394933
H           17.52125383238311       39.13311016103522       56.90600827625467
H           18.06910786962285       35.89360951259722       51.24630632101432
H           19.78253043996021       36.32278287514592       51.09038252854526
H           18.29538144533786       34.12698902228029       49.55717316589821
H           18.90248444446239       35.66074140169232       48.87360402730754
H           26.45229111447190       34.42900085411573       50.23101792689891
H           24.68449932631524       34.32049237666682       50.11318215699126
H           25.68245122135396       32.84954131380540       50.21513294454061
H           26.70662435400720       35.68051246474181       48.43721179123151
H           26.30120906647322       35.13705334226459       46.81585764009913
H           25.01924474417320       35.74856848837472       47.89011210487122
H           26.11219727793187       32.75914940624551       45.98580731304445
H           24.44464354607765       32.25359304047341       45.67364620963685
H           24.84133697131452       33.96377126681121       45.69466416612195
H           24.39523875714426       31.49274255778917       49.17781826707911
H           24.21240269194555       30.94279935505971       47.51975727757692
H           25.83273990373233       31.21351549308024       48.17959952531690
H           19.99133719474888       32.44510728767606       50.23745763599500
H           21.70771599039718       32.84513905285118       49.98967369604454
H           21.57395454211175       34.56971314486714       51.78195192374797
H           21.01861438441196       33.01669796258881       52.41383003332661
H           16.54484353973714       35.03762098072487       54.65453796367588
H           16.59238334800847       36.13330083503406       53.26162630437086
H           17.00002931280980       34.41858885988611       53.07367893609712
H           21.37148492970189       32.97382350829623       57.24672792155952
H           20.69091012094906       32.00885312733416       58.55247807771185
H           20.89790881729301       30.76481074517216       56.37331588105804
H           19.29917753208866       29.99169666092372       58.04085262212993
H           18.04853606479562       31.12536022993650       57.43539976541611
H           17.83704810387416       29.47638106419798       54.19099056346367
H           17.22477916084155       30.83448831589269       55.16849308146513
H           20.09845937244353       30.47440235664043       54.16950330310599
H           18.90351773013102       31.66649140180072       53.56852070955866
H           19.36201687517946       35.02167528783678       61.58998479025585
H           17.58426235309523       35.22400448082080       61.58919554568852
H           19.14055376472293       32.61330846641820       61.93179552206626
H           18.16215227914949       33.40971916406914       63.17012074447227
H           16.10915187885696       33.00555719845594       61.86672561137680
H           16.97162188246103       31.46582404779219       62.04529890026187
H           17.04036862651205       25.33202996812901       55.34964785119212
H           18.23797568438387       27.38460009036110       54.75280651777845
H           17.22486054525512       29.18077589902764       58.50746065552465
