151
 energy: -221.281511415253 gnorm: 0.000349983621 xtb: 6.7.1 (edcfbbe)
C           15.80318083844689       23.12366298377573       61.71944007727073
C           15.35403491577038       24.51057940400185       61.25593332003982
O           15.46028061730560       25.48956334034326       62.27889712960809
C           16.77297420037652       25.89366393934133       62.56856450038566
C           13.89390755021503       24.48184064678038       60.84973492673738
N           13.09097805747809       23.76705636110128       61.62077828217178
C           11.80716456510389       23.69129891634756       61.33017198322977
C           11.24312037188544       24.31545845067993       60.22799703383042
C           12.07444997912393       25.06069537098576       59.41215395642035
C           13.43007622769896       25.17072255967812       59.72109834765718
C           14.31664473773278       25.95649301840172       58.85505860789295
N           14.61770911328576       25.51766544684562       57.58344597606281
C           14.28314301822917       24.23174078125945       57.03280421907707
C           15.34618766012108       23.18442849644710       57.36364208404340
C           14.92779262942964       27.16426508983033       59.10002378437314
C           14.79240432236542       27.97865331454971       60.34569906443085
C           13.68269780701406       29.05610547304741       60.31369358380103
C           12.37767484428611       28.48901561239533       59.75722377574481
C           13.45052826248034       29.55882953932365       61.74057879363054
C           14.10503405463456       30.23346135381496       59.42926518043172
O           15.25173107413938       30.87163622897293       60.00109640337951
C           15.82151181140206       31.82736550298184       59.28362299712478
C           17.06494925446075       32.38320370549979       59.96271257714835
N           17.31051156939462       33.75185226554465       59.54277670724046
N           18.61944491583361       34.10987411104357       59.87230929401156
C           19.71714783774497       33.86508722150835       59.12018415191974
C           19.46287508667712       33.34085016262499       57.69218703178975
N           19.66643223564165       34.41697508885759       56.74751187549550
C           18.66197092464348       35.24245080972742       56.42907341943690
C           19.02135419979088       36.24741064585979       55.33262028013520
C           18.33717302306896       37.60507812471229       55.52908403869395
C           18.72396207700369       38.56326844875699       54.40521721114609
C           18.76313357758659       38.17846267059738       56.87993253981345
N           18.69166642751596       35.60192700610444       54.05936500486347
C           19.71273268630399       35.01778460683419       53.40739215080072
C           19.48390858916638       34.43624328913883       51.99724463685673
C           19.19244906379120       35.56838289287280       51.00742440308132
C           19.09139845125377       35.01427861161960       49.58400516064270
N           20.27922154948615       34.27048635815701       49.24443012646300
C           21.10496649591921       34.71792107837375       48.26508361687736
C           22.28113370427057       33.91241734245901       48.04386476253271
C           23.27571911877029       33.32514114870622       47.70220338535733
C           24.54879232349524       32.65191271418190       47.44894431600233
N           25.61800357050680       33.23577461467621       48.27686622206847
C           25.39678368552894       33.09298545805868       49.70381498052615
C           25.91452448399811       34.62023091447605       47.95285897948555
C           24.40132769326690       31.15434557280726       47.76532031471613
C           24.89480759830839       32.79770174275400       45.95886311053612
O           20.87475772456114       35.71414362657914       47.60310917682006
C           20.55343888611594       33.15920834362461       50.11899874177723
C           20.72023293830425       33.64894505028754       51.55884318345753
O           20.85247205615620       35.03210436709887       53.85095783560020
C           17.27876522433614       35.48454674569688       53.76942728240634
O           17.54921560452604       35.16676360178508       56.92444947495205
C           20.38079520891294       32.15240772609540       57.40397370770303
C           19.77753794374487       31.18082918468024       56.38613844474964
C           18.56282739069055       30.42522008524606       56.95057097606960
N           18.05275473389349       29.52940764352262       55.93479489428638
C           17.67009362304459       30.29693985968955       54.76022469732307
C           18.89479281454903       31.04758326113973       54.24254831431276
O           19.42609605018098       31.90500229572212       55.22511537280749
O           20.84319413936288       34.09284846775520       59.52250173898531
C           18.72409146016429       34.28163088775894       61.30970713462349
C           18.37682600680932       32.95447484051623       61.99730452112703
C           17.03444973049735       32.41226561815081       61.49408929003673
O           15.45723569043377       32.17381352378749       58.18954375869068
C           15.68744040733372       27.47362527085863       57.93068895694448
C           15.47382717474388       26.42002273249576       57.01214021328448
C           16.08988837875146       26.41818862810676       55.76591494797192
C           16.91192091775586       27.47237733782389       55.44969828562240
C           17.14529224583026       28.53370390459101       56.34588788588578
C           16.53796265213162       28.52786461613989       57.58945605066166
F           18.40860350965288       33.54410678530074       51.98015353181611
H           15.23261830068958       22.84453936901167       62.59987472734681
H           15.61644122399806       22.39561066187546       60.93423117816820
H           16.86456677941838       23.11916806189960       61.95345599426768
H           15.96255349867850       24.83303816351506       60.39299924961227
H           16.68590680619460       26.73674747656371       63.25188656056175
H           17.35224510643729       25.10060858903384       63.05280610015357
H           17.29709482201723       26.21396514667573       61.65900367573652
H           11.21027613992750       23.09496855834049       62.00761410894665
H           10.18965521565014       24.22202254130311       60.01463251810539
H           11.68139518858155       25.57044640562068       58.54310073868979
H           13.31724252695848       23.91423519857965       57.43453001485870
H           14.18734318656696       24.33811882389976       55.94877720443247
H           15.41291185788009       23.04719019051955       58.44065085652465
H           15.09092787152765       22.23282006601680       56.90532910601492
H           16.31731899341265       23.50471819888647       56.99351555364388
H           14.57760578039294       27.30429634803052       61.17601662191738
H           15.73954555486435       28.48152879579760       60.55274580069430
H           12.06533495798124       27.63182921377128       60.34761311935566
H           11.59118336020856       29.23963007712954       59.79449996364423
H           12.50468325990203       28.17522502094331       58.72402782546675
H           14.37041746175102       29.96199477180548       62.15501756473907
H           12.69612891169963       30.34265817463265       61.75039185459693
H           13.11108864388355       28.74344009159502       62.37444389074533
H           14.34963085029158       29.89725404603195       58.41658144900843
H           13.30018585135245       30.97320775820016       59.35703330766552
H           17.88940271761491       31.70782328682445       59.64805954653419
H           17.06308636554735       33.98124603899264       58.58138074305469
H           18.41954006749842       33.03689398218246       57.58026602097524
H           20.54066012806630       34.46138904034762       56.24526425203923
H           20.10492383911223       36.40072335572978       55.32646177195476
H           17.25342958517335       37.46582724867805       55.54513912479198
H           18.22845827972134       39.52128102270959       54.54233902658586
H           19.79916510168053       38.72971156583703       54.40892111669426
H           18.44693976759205       38.17119810974979       53.42990341582642
H           18.44999147092368       37.52428412101438       57.68903154487737
H           19.84429398871136       38.29310985765242       56.92436134093438
H           18.30671027818473       39.15343413590861       57.03152002726572
H           18.25921839826932       36.06671468311619       51.26881969408538
H           20.00706041347557       36.29145805733464       51.07048484166614
H           18.22110797925912       34.35141815597522       49.51117866892372
H           18.98873512226256       35.82758903787958       48.86280191443917
H           26.25013466104381       33.52432410506249       50.22518610365964
H           24.48541510143323       33.60103973396235       50.05291938574643
H           25.34154170544797       32.04162496024994       49.97372609604424
H           26.69795699802398       34.96722752605549       48.62504594036176
H           26.29289987177983       34.69456017703989       46.93676952713187
H           25.04450557969178       35.28319029042178       48.06150466735792
H           23.94332908311024       30.99033866851744       48.73699815940547
H           23.76990191384132       30.68241048068295       47.01654946503280
H           25.38223842187947       30.68683900656093       47.74746835160261
H           25.91693840817050       32.46810209521055       45.79164219653033
H           24.22248219371683       32.18235992080101       45.36596051638356
H           24.78507548721237       33.82519935096215       45.62406933932721
H           19.71334290530405       32.45498783073990       50.07024302170371
H           21.45903258779374       32.65065613798868       49.78433607414242
H           21.58944969944594       34.30001033175115       51.64505499305579
H           20.85849186129580       32.80397487811928       52.23431217000186
H           16.74967902966516       35.28993681847360       54.70333377930724
H           16.89201094982156       36.41062006152880       53.33701805962230
H           17.07385977902524       34.66404470768921       53.09333088103507
H           21.33363045779453       32.52727643621093       57.02858997868515
H           20.58186197247586       31.61038343774991       58.32968168131492
H           20.53771570980838       30.42501695429147       56.11822633012954
H           18.88303853682277       29.83747302175459       57.81398699639928
H           17.78958288484900       31.14687673826556       57.25893466421346
H           17.29035698137344       29.63083776679954       53.98674472349177
H           16.88484847512845       31.02864097148669       55.01496996854966
H           19.66185730005927       30.32058957869189       53.93186299599070
H           18.62375507542811       31.67958936280295       53.39794635450708
H           19.74235005512244       34.59140794289941       61.54366923418372
H           18.01658478087995       35.05958872498022       61.60314313205421
H           19.16531236677393       32.23031937687423       61.77745420692548
H           18.34180115433090       33.10078326312289       63.07688046614045
H           16.22603329720198       33.07240772449327       61.80957771490574
H           16.85167844878822       31.41511662328255       61.89381645656252
H           15.94293704818988       25.61078370131915       55.06411877613447
H           17.41905392404681       27.48174190264580       54.49719412884606
H           16.71145532602173       29.31948509899665       58.30037168506288
