151
 energy: -221.270899461802 gnorm: 0.000378104052 xtb: 6.7.1 (edcfbbe)
C           14.40648214832283       23.14069963384775       61.32941819010516
C           14.14500264893929       24.55666153219500       60.81707031953400
O           14.50291635777563       25.55409431702233       61.76282925388027
C           15.87995228942301       25.80993724095643       61.84885709320049
C           12.67087317199388       24.76171034815274       60.52835104004755
N           11.81882359797727       24.11684984294498       61.30709202490088
C           10.52241206155124       24.25739273744506       61.10734882027484
C            9.99370381393239       25.04253480541393       60.09499099555734
C           10.87711246420727       25.71737065044407       59.27135714634007
C           12.24797204536827       25.59939011195085       59.48670389855315
C           13.20722916412434       26.30155957029401       58.62234684771020
N           13.49885398424949       25.81407399273507       57.36812044827342
C           12.93564234947237       24.64114472392315       56.75533184528739
C           11.85083523782912       24.99102995974194       55.73705375659011
C           13.94609944725303       27.43254986280291       58.87904988298649
C           13.89154870516953       28.24633219984523       60.13155406034480
C           12.92547579734036       29.45439959965436       60.09847281548121
C           11.56678565747555       29.06268965674922       59.52106541103682
C           12.73991340008435       29.97014817221048       61.52766013812577
C           13.50559174648009       30.57750573134682       59.23237072104785
O           14.71665579262458       31.05178256521682       59.82758401025190
C           15.44052985657096       31.90888195274088       59.12449872806014
C           16.73610788800246       32.26354751512739       59.83955980163862
N           17.20227726282291       33.58598687058109       59.45643133201133
N           18.54351352722286       33.71782137994268       59.83019864803553
C           19.60287990105746       33.25702491940604       59.12188500531849
C           19.33374879340183       32.92368953643015       57.64200362463598
N           19.73288309368549       34.06413629911897       56.84929685921631
C           18.85097824610706       35.00785454093627       56.48891125159464
C           19.47524229168594       36.06295849924800       55.56945626048280
C           18.64074189454933       37.34754588999532       55.49228296812864
C           19.16001893699388       38.26464120002721       54.38872289547400
C           18.70722890080454       38.04963718848867       56.84767814598995
N           19.71127669582119       35.42711224186219       54.26834452289935
C           20.96281715999707       34.94182487852751       54.07385204009692
C           21.37144962113042       34.38348380287970       52.69457596010785
C           21.30225784028680       35.46666442507715       51.60995724741890
C           21.83002669943627       34.90129442401324       50.28559856831907
N           21.11165689350351       33.70001838964034       49.94216910986859
C           20.17527985815368       33.61138535269102       48.96378579626276
C           20.09440660733228       34.77376561070691       48.11145024084629
C           19.95316092447797       35.68722836990197       47.34101099867472
C           19.81998199151311       36.83917731182406       46.45315439876360
N           21.00176715296474       37.68600086837385       46.66388124163703
C           22.25792619215717       37.02369203308071       46.37417723361396
C           20.96130326504368       38.98653402902964       46.03191115236828
C           19.64728872972186       36.32378931403019       45.01073438169487
C           18.54519278134244       37.57777534581025       46.89224327021154
O           19.47480507148624       32.62967603770255       48.79415705220252
C           21.25242574798850       32.63617310221476       50.90979504926329
C           20.68803803949853       33.08336341613009       52.26213390310930
O           21.81909580463423       35.02806702965906       54.93617512308406
C           18.51952499221072       34.97968564661320       53.57793791767819
O           17.67631590477583       34.99045100829303       56.80871427090568
C           20.08045038259448       31.65431327447498       57.22383586596965
C           19.31235620125388       30.80627918213591       56.20676613525624
C           18.00596663013186       30.22825981918184       56.77713567076199
N           17.38071798453771       29.40887375223752       55.76075735513911
C           17.09646942898349       30.22246493070062       54.59081810025274
C           18.40926156668475       30.80159779948649       54.06915877795212
O           19.05416255901944       31.58318096354802       55.05014933894871
O           20.72281162302177       33.19802794252829       59.59359427265469
C           18.62934063465947       33.84170144996773       61.27465968954230
C           18.06007358952187       32.57470547489518       61.92376295284482
C           16.66616755306250       32.26320416508203       61.37010411293269
O           15.16061477770439       32.30458352644930       58.02263858566673
C           14.75816992752012       27.65146451636865       57.72381471628487
C           14.44122955534698       26.62749016148505       56.80097483941929
C           15.07057900064061       26.55120705218614       55.56394109546994
C           16.01512078612663       27.50140128913600       55.26132120375230
C           16.35687456817016       28.52790298767255       56.16292603831403
C           15.73451413480061       28.59637051591243       57.39696481753844
F           22.72176883889102       34.07125050406461       52.84051878902552
H           13.85442556709875       22.98899846873041       62.25152662385990
H           14.06863439160154       22.41792464289309       60.59186100405684
H           15.46735126908981       22.98774804473637       61.50965975187569
H           14.71605969650193       24.72859867873103       59.88824645641783
H           15.98859771661240       26.65590004625270       62.52528460834730
H           16.43488714524776       24.95649940052396       62.25293145829747
H           16.29466204084751       26.07184113358060       60.86692444439748
H            9.88434483506569       23.70499501099041       61.78459750848901
H            8.92715089521883       25.12246242889614       59.95317145917848
H           10.51203983218766       26.34128682593299       58.46792096501184
H           13.74048008041839       24.08868252191713       56.25907285589393
H           12.51848836738635       24.00659718713864       57.54258641299219
H           11.01528819294820       25.48625278690247       56.22478473524735
H           12.24941871729742       25.65724362563584       54.97604570416883
H           11.48615849618726       24.08701505606180       55.25687352148810
H           13.58710140164426       27.59109562587356       60.94958556576523
H           14.89038465812727       28.62539462902012       60.35770498873584
H           11.13251719496345       28.26056229042604       60.11169221138965
H           10.88738064087774       29.91219546958642       59.53883231393442
H           11.67023882095275       28.72635164989264       58.49235506575799
H           13.69761448830475       30.24988570635148       61.95761244359473
H           12.09070756082528       30.84313041031693       61.53648841607749
H           12.29153173277818       29.19926341120549       62.14945921134149
H           13.71759691881237       30.22421510752052       58.21818711415605
H           12.80416741896779       31.41618500325268       59.16191767432608
H           17.45715950692401       31.47746217323337       59.52747456418534
H           17.02294031971684       33.85949562642189       58.49141293356737
H           18.26417492458925       32.80229757453210       57.45997652011449
H           20.70820130032329       34.15790627850129       56.59749554484426
H           20.46537272719861       36.32146178716336       55.95927471214787
H           17.59318329239571       37.09380311995506       55.30481402972535
H           18.59420805472148       39.19296607469574       54.37819265208191
H           20.20755513797669       38.50206728363654       54.56167532430737
H           19.07206192348957       37.79828064604722       53.41087861160536
H           18.32408804574741       37.39876971604814       57.62876576095849
H           19.73252509896124       38.32190519412282       57.08960405137495
H           18.10492220041668       38.95455453711968       56.82951060362215
H           20.27679106746882       35.80983686764420       51.48123903426448
H           21.91758220633388       36.31305368204095       51.91833726473920
H           21.71763147948451       35.63976111606075       49.49041189892579
H           22.89116466463402       34.65385208774792       50.39891943443464
H           23.05973318308769       37.58070131270287       46.86098670948504
H           22.24457396041320       36.01286372377639       46.77694589104927
H           22.48219557292945       36.97337508216302       45.29827884289259
H           21.84179118276985       39.54154396035494       46.35587423179118
H           20.97703705306625       38.94061983670885       44.93218005485132
H           20.08142486559910       39.53775585494304       46.35186329915529
H           20.49842871723406       35.71637611158553       44.71288434327481
H           18.75136612673759       35.71182648485610       44.94722207776494
H           19.54810375976223       37.16043607243483       44.32270483780538
H           18.71711906222152       38.08224279432488       47.83976536631542
H           18.23939804508027       38.30456648359704       46.14438300660722
H           17.73862189716628       36.85957111611744       47.02059531781665
H           20.70476221881247       31.76791736440258       50.53865749259421
H           22.31320381401443       32.38594170718881       51.00871421310097
H           20.86781963346987       32.32001397556500       53.01961247073766
H           19.61736639029165       33.22804313621583       52.15830958277011
H           17.68446099346228       35.59744185094279       53.89680279062139
H           18.61677058830113       35.07621789137594       52.49860393885196
H           18.28776659601898       33.94441518753419       53.84204962163300
H           21.04272887155438       31.93749624136936       56.79488875793195
H           20.28188511335322       31.04199474678738       58.10427189599847
H           19.94674286934846       29.94987393427659       55.91624207811932
H           18.24380404422171       29.60366788858742       57.64091893832661
H           17.33846041862153       31.04896972607828       57.08399296201387
H           16.62812207252408       29.61479742100473       53.81772229300687
H           16.41699354418366       31.05231981932847       54.85091626503682
H           19.07115452595039       29.97831127600070       53.75960617390626
H           18.22541506259411       31.45653085319013       53.21595869262918
H           19.67592263046708       33.98410052465879       61.54279347852668
H           18.04308876739436       34.71610368542081       61.56352875253949
H           18.73197438390615       31.74033138666246       61.70827941266530
H           18.01543602663601       32.70486771378691       63.00502025321855
H           15.96182954618798       33.03512697613090       61.68174880818759
H           16.31684689583672       31.29861723696339       61.73729036278438
H           14.84045611725924       25.76471238073812       54.86098357454250
H           16.53392382256184       27.45195388684722       54.31638854848871
H           15.99370840370587       29.36231943606012       58.11014812703925
